LAMMPS (22 Jul 2025 - Update 1)
# TIP4P/2005 Water + Nanoparticle Test
# Following exact pattern from water-co2 example

units           real
atom_style      full
bond_style      harmonic
angle_style     harmonic
boundary        p p p

# TIP4P pair style
# Syntax: lj/cut/tip4p/long type_O type_H bond_type angle_type OM_distance cutoff
pair_style      lj/cut/tip4p/long 3 4 1 1 0.1546 12.0
kspace_style    pppm/tip4p  1.0e-5
pair_modify     mix arithmetic tail yes

# Create box
region          box block -20 20 -20 20 -20 20
create_box      5 box                 bond/types 1                 angle/types 1                 extra/bond/per/atom 2                 extra/angle/per/atom 1                 extra/special/per/atom 3
Created orthogonal box = (-20 -20 -20) to (20 20 20)

# Masses
mass            1  28.0855  # Si
mass            2  12.0107  # C
mass            3  15.9994  # O (water)
mass            4  1.008    # H (water)
mass            5  0.0001   # M (virtual site)

# Pair coefficients
pair_coeff      3 3  0.1852  3.1589   # TIP4P/2005 O-O
pair_coeff      4 4  0.0     0.0      # H-H
pair_coeff      5 5  0.0     0.0      # M-M
pair_coeff      1 1  0.40    3.826    # Si-Si
pair_coeff      2 2  0.095   3.851    # C-C

# Bond/angle coefficients
bond_coeff      1  1000.0  0.9572
angle_coeff     1  1000.0  104.52

# Add nanoparticle (simple SiC cube)
create_atoms    1 single 0.0 0.0 0.0
Created 1 atoms
create_atoms    2 single 1.5 0.0 0.0
Created 1 atoms
create_atoms    1 single 0.0 1.5 0.0
Created 1 atoms
create_atoms    2 single 1.5 1.5 0.0
Created 1 atoms
create_atoms    1 single 0.0 0.0 1.5
Created 1 atoms
create_atoms    2 single 1.5 0.0 1.5
Created 1 atoms
create_atoms    1 single 0.0 1.5 1.5
Created 1 atoms
create_atoms    2 single 1.5 1.5 1.5
Created 1 atoms

# Insert water molecules
molecule        h2o_mol H2O_TIP4P.txt
Read molecule template h2o_mol:
#
  1 molecules
  0 fragments
  0 bodies
  3 atoms with max type 2
  2 bonds with max type 1
  1 angles with max type 1
  0 dihedrals with max type 0
  0 impropers with max type 0
create_atoms    0 random 100 654312 NULL mol h2o_mol 545474 overlap 2.0 maxtry 2000
Created 300 atoms

# Groups
group           nanoparticle type 1 2
308 atoms in group nanoparticle
group           water type 3 4 5
0 atoms in group water

# Output
dump            1 all custom 500 tip4p_test.lammpstrj id mol type x y z
thermo          100
thermo_style    custom step temp pe ke etotal press vol density

# SHAKE (AFTER minimization would crash, so start directly with MD)
fix             myshk water shake 1.0e-4 200 0 b 1 a 1 mol h2o_mol
Finding SHAKE clusters ...
       0 = # of size 2 clusters
       0 = # of size 3 clusters
       0 = # of size 4 clusters
       0 = # of frozen angles
  find clusters CPU = 0.001 seconds
fix             mynvt all nvt temp 300.0 300.0 100.0
fix             mymom all momentum 500 linear 1 1 1

timestep        1.0

# Short run (10 ps)
run             10000
PPPM initialization ...
  extracting TIP4P info from pair style
  G vector (1/distance) = 0.24228519
  grid = 24 24 24
  stencil order = 5
  estimated absolute RMS force accuracy = 0.0021699035
  estimated relative force accuracy = 6.5345999e-06
  3d grid and FFT values/proc = 11191 3456
Generated 10 of 10 mixed pair_coeff terms from arithmetic mixing rule
Step          Temp          PotEng         KinEng         TotEng         Press          Volume        Density
0   0              868204.98      0              868204.98      3729054.9      64000          0.13935748
Averages over the last 51 of 101 rows, steps 5000 to 10000:
Temp PotEng KinEng TotEng Press Volume Density
3.38915e-10 -148.091 3.10144e-10 -148.091 -64.6609 64000 0.139357
Loop time of 51.3466 on 48 procs for 10000 steps with 308 atoms

write_data      tip4p_test_final.data
System init for write_data ...
PPPM initialization ...
  extracting TIP4P info from pair style
  G vector (1/distance) = 0.24228519
  grid = 24 24 24
  stencil order = 5
  estimated absolute RMS force accuracy = 0.0021699035
  estimated relative force accuracy = 6.5345999e-06
  3d grid and FFT values/proc = 11191 3456
Generated 10 of 10 mixed pair_coeff terms from arithmetic mixing rule
print           "Test complete!"
Test complete!
